power-flow-agent/results/ieee14/2026-09-21/gpt-5.6-sol/react_nogate/traces/32_case14-plain-004-s0.transcript.txt
==============================================================================
TRANSCRIPT  react_nogate  |  openrouter:openai/gpt-5.6-sol  |  case14  |  case14-plain-004-s0  run 0
==============================================================================
date: 2026-09-21   seed: 0   difficulty: plain   tool variant: load_split

[system]   (hash 7da5e2a37ec4, from methods/react_nogate/method.json prompt_files)
You are a power system power-flow analysis assistant. You help the user complete power system analysis tasks from natural-language requests.

## What you can do
You complete tasks by calling tool functions:
1. Load an IEEE standard test system (14, 30, 57, 118, 300 buses)
2. Run AC power flow
3. Modify the load at a bus and re-solve
4. Disconnect or reconnect a line and re-solve
5. Query the network status
6. Run an N-1 contingency analysis (disconnect branches one at a time and rank the worst cases)
7. Generate remedial-action suggestions (what-if load shedding or voltage adjustment) to reduce violation risk

## Key rules
- Never fabricate any numerical result. Every voltage, power, loss, or loading value must come from a tool return value.
- If a tool reports an error or a non-converged power flow, say so explicitly and do not report numbers for that state.
- If the request is ambiguous, state the interpretation you are using.
- Bus and line identifiers in the request are MATPOWER 1-based ids; pass them to the tools as given, unless the request itself states a different indexing convention for that identifier (e.g. "(0-based)"), in which case convert it to the MATPOWER 1-based id before calling any tool.
- After a network modification, re-solve before reporting any value.
- Always reply in English.

## Reply format
After each analysis, reply in this structure:
1. One-sentence summary
2. Key numbers (total load, total generation, total losses, voltage range) taken from the tool outputs
3. Violations, if any
4. Suggested next step

[user]
Load case14 and run an N-1 contingency analysis and report the worst single outage.

[tools available to the model]   (function-calling schema, --tool-variant load_split; enum values and defaults as sent)
  load_case(case_name: string* in {case14, case30, case57, case118, case300})  Load IEEE test case.
  run_powerflow()  Run power flow on current case.
  disconnect_line(from_bus: integer*, to_bus: integer*)  Disconnect line/branch between two buses and recompute.
  reconnect_line(from_bus: integer*, to_bus: integer*)  Reconnect line/branch between two buses and recompute.
  get_most_loaded_branch()  Get most loaded branch.
  run_n1_contingency(top_k: integer (default 5), criteria: string in {max_violations, max_overload, min_voltage} (default max_violations), max_candidates: integer (default 0))  Run N-1 contingency analysis.
  recommend_remedial_actions(max_actions: integer (default 5), allow_load_shed: boolean (default True), allow_voltage_control: boolean (default True), include_best_comparison: boolean (default True))  Recommend remedial actions.
  apply_remedial_action(action_index: integer*, confirmed: boolean (default False))  Apply one remedial action by index.
  get_status()  Get current network status.
  generate_plot(plot_type: string* in {voltage_heatmap, flow_diagram, violation_overview, comparison})  Generate one plot.
  set_active_load(bus_id: integer*, p_mw: number*)  Set a bus's active load (MW) and recompute. Use this when the request states only an active-power value. This tool has no reactive-power argument: the bus's present reactive load is always left unchanged. If the request also states a reactive-power value, use set_load instead.
  set_load(bus_id: integer*, p_mw: number*, q_mvar: number*)  Set a bus's active and reactive load (MW, Mvar) and recompute. Use this only when the request states both values. If the request states only an active-power value, use set_active_load instead -- do not invent a reactive-power value here to fill this in.

--- round 1 ---
[assistant]   (929 in / 43 out tokens, 2.3 s)
(no text)
tool_call  load_case(case_name="case14")
[tool load_case]   (gate: not applied)
{"case_name": "case14", "n_buses": 14, "n_generators": 5, "n_lines": 20, "n_loads": 11, "total_load_mw": 261.9932169620855, "total_gen_capacity_mw": 772.4000000000001}

--- round 2 ---
[assistant]   (1030 in / 61 out tokens, 2.5 s)
(no text)
tool_call  run_n1_contingency(top_k=1, criteria="max_violations", max_candidates=0)
[tool run_n1_contingency]   (gate: not applied)
{"plot_type": "n1_ranking", "figure_json": "<plotly figure, 8 KB, omitted; see the .json trace>", "n1_report": {"case_name": "case14", "base_converged": true, "top_k": 1, "criteria": "max_violations", "results": [{"branch_id": 1, "branch_type": "line", "from_bus": 1, "to_bus": 5, "converged": true, "n_voltage_violations": 9, "n_thermal_violations": 0, "delta_voltage_violations": 0, "delta_thermal_violations": 0, "worst_vm_pu": 1.0075016276963973, "worst_loading_percent": 2.361801945979293, "score": 90002.36180194598, "notes": ""}], "summary_text": "N-1 completed over 20 branches. Worst outage: 1-5 (line), V violations=9 (delta=0), thermal violations=0 (delta=0)."}}

--- round 3 ---
[assistant]   (4591 in / 53 out tokens, 2.7 s)
(no text)
tool_call  get_status()
[tool get_status]   (gate: not applied)
{"active_case": "case14", "network_info": {"case_name": "case14", "n_buses": 14, "n_generators": 5, "n_lines": 20, "n_loads": 11, "total_load_mw": 261.9932169620855, "total_gen_capacity_mw": 772.4000000000001}, "has_last_result": false}

--- round 4 ---
[assistant]   (4705 in / 75 out tokens, 2.5 s)
(no text)
tool_call  run_powerflow()
[tool run_powerflow]   (gate: pass)
{"case_name": "case14", "converged": true, "bus_voltages": [{"bus_id": 1, "vm_pu": 1.06, "va_deg": 0.0, "is_violation": true, "violation_type": "overvoltage"}, {"bus_id": 2, "vm_pu": 1.0450000000000002, "va_deg": -5.12793878696546, "is_violation": false, "violation_type": null}, {"bus_id": 3, "vm_pu": 1.0099999999999998, "va_deg": -13.265552429829722, "is_violation": false, "violation_type": null}, {"bus_id": 4, "vm_pu": 1.0187624648876388, "va_deg": -10.366702398493839, "is_violation": false, "violation_type": null}, {"bus_id": 5, "vm_pu": 1.02029095700076, "va_deg": -8.82240210678166, "is_violation": false, "violation_type": null}, {"bus_id": 6, "vm_pu": 1.0700000000000003, "va_deg": -14.214840392232752, "is_violation": true, "violation_type": "overvoltage"}, {"bus_id": 7, "vm_pu": 1.062810539356897, "va_deg": -13.311179763906466, "is_violation": true, "violation_type": "overvoltage"}, {"bus_id": 8, "vm_pu": 1.0899999999999999, "va_deg": -13.311179763906466, "is_violation": true, "violation_type": "overvoltage"}, {"bus_id": 9, "vm_pu": 1.0580443094491314, "va_deg": -14.83570671574802, "is_violation": true, "violation_type": "overvoltage"}, {"bus_id": 10, "vm_pu": 1.0530440362521865, "va_deg": -15.001413104003237, "is_violation": true, "violation_type": "overvoltage"}, {"bus_id": 11, "vm_pu": 1.057679555240288, "va_deg": -14.75342422618607, "is_violation": true, "violation_type": "overvoltage"}, {"bus_id": 12, "vm_pu": 1.0556280086126129, "va_deg": -15.045135174555291, "is_violation": true, "violation_type": "overvoltage"}, {"bus_id": 13, "vm_pu": 1.0508695375543848, "va_deg": -15.126702667230425, "is_violation": true, "violation_type": "overvoltage"}, {"bus_id": 14, "vm_pu": 1.0378079777432185, "va_deg": -15.913801850951222, "is_violation": false, "violation_type": null}], "line_flows": [{"line_id": 0, "from_bus": 1, "to_bus": 2, "p_from_mw": 161.27898841095683, "q_from_mvar": -21.42567444766888, "loading_percent": 1.5503711493049632, "is_violation": false}, {"line_id": 1, "from_bus": 1, "to_bus": 5, "p_from_mw": 75.87797902492972, "q_from_mvar": 3.463791579624108, "loading_percent": 0.724107673685497, "is_violation": false}, {"line_id": 2, "from_bus": 2, "to_bus": 3, "p_from_mw": 76.79866575902287, "q_from_mvar": 3.222796090798716, "loading_percent": 0.7431125926079991, "is_violation": false}, {"line_id": 3, "from_bus": 2, "to_bus": 4, "p_from_mw": 55.101263504310396, "q_from_mvar": -1.9438409901584484, "loading_percent": 0.5329422442351411, "is_violation": false}, {"line_id": 4, "from_bus": 2, "to_bus": 5, "p_from_mw": 40.45264324004043, "q_from_mvar": 0.9857116341385478, "loading_percent": 0.3925234735461614, "is_violation": false}, {"line_id": 5, "from_bus": 3, "to_bus": 4, "p_from_mw": -27.87271347990971, "q_from_mvar": 5.863003788468809, "loading_percent": 0.2875165955247451, "is_violation": false}, {"line_id": 6, "from_bus": 4, "to_bus": 5, "p_from_mw": -61.25413780951896, "q_from_mvar": 16.617890024433397, "loading_percent": 0.6292868525501258, "is_violation": false}, {"line_id": 7, "from_bus": 6, "to_bus": 11, "p_from_mw": 6.942363161383913, "q_from_mvar": 3.3378677263170364, "loading_percent": 0.07271878734292794, "is_violation": false}, {"line_id": 8, "from_bus": 6, "to_bus": 12, "p_from_mw": 7.563075574563357, "q_from_mvar": 2.424007014162801, "loading_percent": 0.07497437118036218, "is_violation": false}, {"line_id": 9, "from_bus": 6, "to_bus": 13, "p_from_mw": 17.30811552521927, "q_from_mvar": 7.033603517484796, "loading_percent": 0.17636814479171226, "is_violation": false}, {"line_id": 10, "from_bus": 9, "to_bus": 10, "p_from_mw": 5.406245935645926, "q_from_mvar": 4.231293988082703, "loading_percent": 0.06554142227209774, "is_violation": false}, {"line_id": 11, "from_bus": 9, "to_bus": 14, "p_from_mw": 9.334617665402597, "q_from_mvar": 3.602367417659881, "loading_percent": 0.09552220032553112, "is_violation": false}, {"line_id": 12, "from_bus": 10, "to_bus": 11, "p_from_mw": -3.0386948995232776, "q_from_mvar": -1.2379465523311528, "loading_percent": 0.03147379107690154, "is_violation": false}, {"line_id": 13, "from_bus": 12, "to_bus": 13, "p_from_mw": 1.6062061663450695, "q_from_mvar": 0.7383774263972271, "loading_percent": 0.016915538327116307, "is_violation": false}, {"line_id": 14, "from_bus": 13, "to_bus": 14, "p_from_mw": 5.04052996156602, "q_from_mvar": 1.4979380253544787, "loading_percent": 0.050543992447383876, "is_violation": false}, {"line_id": 100000, "from_bus": 4, "to_bus": 7, "p_from_mw": 27.1949816871751, "q_from_mvar": -9.827006899788223, "loading_percent": 0.2867019290881507, "is_violation": false}, {"line_id": 100001, "from_bus": 4, "to_bus": 9, "p_from_mw": 15.584229579427392, "q_from_mvar": -0.6565082451097171, "loading_percent": 0.15465437970439075, "is_violation": false}, {"line_id": 100002, "from_bus": 5, "to_bus": 6, "p_from_mw": 43.6795453624822, "q_from_mvar": 12.800495674052105, "loading_percent": 0.4506195243614869, "is_violation": false}, {"line_id": 100003, "from_bus": 7, "to_bus": 8, "p_from_mw": 1.864877444452035e-14, "q_from_mvar": -16.404907936939704, "loading_percent": 0.1559131516304279, "is_violation": false}, {"line_id": 100004, "from_bus": 7, "to_bus": 9, "p_from_mw": 27.194981686784615, "q_from_mvar": 4.966495323648764, "loading_percent": 0.2627373868358704, "is_violation": false}], "total_generation_mw": 275.90944912682, "total_load_mw": 261.9932169620855, "total_loss_mw": 13.916232169435089, "voltage_violations": [{"bus_id": 1, "vm_pu": 1.06, "va_deg": 0.0, "is_violation": true, "violation_type": "overvoltage"}, {"bus_id": 6, "vm_pu": 1.0700000000000003, "va_deg": -14.214840392232752, "is_violation": true, "violation_type": "overvoltage"}, {"bus_id": 7, "vm_pu": 1.062810539356897, "va_deg": -13.311179763906466, "is_violation": true, "violation_type": "overvoltage"}, {"bus_id": 8, "vm_pu": 1.0899999999999999, "va_deg": -13.311179763906466, "is_violation": true, "violation_type": "overvoltage"}, {"bus_id": 9, "vm_pu": 1.0580443094491314, "va_deg": -14.83570671574802, "is_violation": true, "violation_type": "overvoltage"}, {"bus_id": 10, "vm_pu": 1.0530440362521865, "va_deg": -15.001413104003237, "is_violation": true, "violation_type": "overvoltage"}, {"bus_id": 11, "vm_pu": 1.057679555240288, "va_deg": -14.75342422618607, "is_violation": true, "violation_type": "overvoltage"}, {"bus_id": 12, "vm_pu": 1.0556280086126129, "va_deg": -15.045135174555291, "is_violation": true, "violation_type": "overvoltage"}, {"bus_id": 13, "vm_pu": 1.0508695375543848, "va_deg": -15.126702667230425, "is_violation": true, "violation_type": "overvoltage"}], "thermal_violations": [], "summary_text": "", "solver_backend": "pandapower", "llm_prompt": null, "llm_response": null}

--- round 5 ---
[assistant]   (7459 in / 118 out tokens, 4.2 s)
(no text)
tool_call  disconnect_line(from_bus=1, to_bus=5)
[tool disconnect_line]   (gate: pass)
{"case_name": "case14", "converged": true, "bus_voltages": [{"bus_id": 1, "vm_pu": 1.06, "va_deg": 0.0, "is_violation": true, "violation_type": "overvoltage"}, {"bus_id": 2, "vm_pu": 1.0450000000000004, "va_deg": -7.875088276323269, "is_violation": false, "violation_type": null}, {"bus_id": 3, "vm_pu": 1.0100000000000002, "va_deg": -17.5167989408916, "is_violation": false, "violation_type": null}, {"bus_id": 4, "vm_pu": 1.009999896538467, "va_deg": -15.814699774994654, "is_violation": false, "violation_type": null}, {"bus_id": 5, "vm_pu": 1.0075016276963973, "va_deg": -15.119278307738922, "is_violation": false, "violation_type": null}, {"bus_id": 6, "vm_pu": 1.07, "va_deg": -20.33703968277476, "is_violation": true, "violation_type": "overvoltage"}, {"bus_id": 7, "vm_pu": 1.059162317833605, "va_deg": -18.93149308206091, "is_violation": true, "violation_type": "overvoltage"}, {"bus_id": 8, "vm_pu": 1.09, "va_deg": -18.93149308206091, "is_violation": true, "violation_type": "overvoltage"}, {"bus_id": 9, "vm_pu": 1.055031071635381, "va_deg": -20.53586245735253, "is_violation": true, "violation_type": "overvoltage"}, {"bus_id": 10, "vm_pu": 1.0506179055820453, "va_deg": -20.774910897570482, "is_violation": true, "violation_type": "overvoltage"}, {"bus_id": 11, "vm_pu": 1.0565148470894936, "va_deg": -20.69666138004852, "is_violation": true, "violation_type": "overvoltage"}, {"bus_id": 12, "vm_pu": 1.0553385359303724, "va_deg": -21.14040052481715, "is_violation": true, "violation_type": "overvoltage"}, {"bus_id": 13, "vm_pu": 1.0504947198235643, "va_deg": -21.18880028023881, "is_violation": true, "violation_type": "overvoltage"}, {"bus_id": 14, "vm_pu": 1.0359257670976827, "va_deg": -21.774071232309712, "is_violation": false, "violation_type": null}], "line_flows": [{"line_id": 0, "from_bus": 1, "to_bus": 2, "p_from_mw": 244.8192629676229, "q_from_mvar": -38.62524897116851, "loading_percent": 2.361801945979293, "is_violation": false}, {"line_id": 1, "from_bus": 1, "to_bus": 5, "p_from_mw": 0.0, "q_from_mvar": 0.0, "loading_percent": 0.0, "is_violation": false}, {"line_id": 2, "from_bus": 2, "to_bus": 3, "p_from_mw": 90.3742481222141, "q_from_mvar": 2.1632144016167327, "loading_percent": 0.8738111638992783, "is_violation": false}, {"line_id": 3, "from_bus": 2, "to_bus": 4, "p_from_mw": 82.45556855270728, "q_from_mvar": -2.549781609901417, "loading_percent": 0.7973996685096671, "is_violation": false}, {"line_id": 4, "from_bus": 2, "to_bus": 5, "p_from_mw": 77.05095777177206, "q_from_mvar": 0.24405717153168882, "loading_percent": 0.7447812507234709, "is_violation": false}, {"line_id": 5, "from_bus": 3, "to_bus": 4, "p_from_mw": -15.269050837141208, "q_from_mvar": 5.592818939757251, "loading_percent": 0.16738999595229473, "is_violation": false}, {"line_id": 6, "from_bus": 4, "to_bus": 5, "p_from_mw": -24.873004286746745, "q_from_mvar": 14.055448230858076, "loading_percent": 0.2857245882591521, "is_violation": false}, {"line_id": 7, "from_bus": 6, "to_bus": 11, "p_from_mw": 5.73021523034104, "q_from_mvar": 4.529322696169759, "loading_percent": 0.06895230225651021, "is_violation": false}, {"line_id": 8, "from_bus": 6, "to_bus": 12, "p_from_mw": 7.439183499249012, "q_from_mvar": 2.601643388832486, "loading_percent": 0.07439809073139667, "is_violation": false}, {"line_id": 9, "from_bus": 6, "to_bus": 13, "p_from_mw": 16.70338975622096, "q_from_mvar": 7.634574131407048, "loading_percent": 0.17337350500786639, "is_violation": false}, {"line_id": 10, "from_bus": 9, "to_bus": 10, "p_from_mw": 6.6141262928988445, "q_from_mvar": 3.0316225340648364, "loading_percent": 0.06965958234742171, "is_violation": false}, {"line_id": 11, "from_bus": 9, "to_bus": 14, "p_from_mw": 10.06048217882193, "q_from_mvar": 2.8197411785411566, "loading_percent": 0.1000321854027022, "is_violation": false}, {"line_id": 12, "from_bus": 10, "to_bus": 11, "p_from_mw": -1.8325504118545037, "q_from_mvar": -2.4422291668417992, "loading_percent": 0.029355631550028696, "is_violation": false}, {"line_id": 13, "from_bus": 12, "to_bus": 13, "p_from_mw": 1.4833510511123267, "q_from_mvar": 0.9181720042544481, "loading_percent": 0.016697459485812995, "is_violation": false}, {"line_id": 14, "from_bus": 13, "to_bus": 14, "p_from_mw": 4.319898145933698, "q_from_mvar": 2.292219138639774, "loading_percent": 0.04702331954273658, "is_violation": false}, {"line_id": 100000, "from_bus": 4, "to_bus": 7, "p_from_mw": 28.43941000358739, "q_from_mvar": -12.2847078655156, "loading_percent": 0.3098235396102662, "is_violation": false}, {"line_id": 100001, "from_bus": 4, "to_bus": 9, "p_from_mw": 16.27354613320513, "q_from_mvar": -1.7128582512848063, "loading_percent": 0.1636507874953533, "is_violation": false}, {"line_id": 100002, "from_bus": 5, "to_bus": 6, "p_from_mw": 41.738779582971006, "q_from_mvar": 6.624582082596124, "loading_percent": 0.42370256233331277, "is_violation": false}, {"line_id": 100003, "from_bus": 7, "to_bus": 8, "p_from_mw": -2.6221267652617595e-15, "q_from_mvar": -18.54221454440821, "loading_percent": 0.176833232503262, "is_violation": false}, {"line_id": 100004, "from_bus": 7, "to_bus": 9, "p_from_mw": 28.439410003112286, "q_from_mvar": 4.375710893884264, "loading_percent": 0.2744122677870914, "is_violation": false}], "total_generation_mw": 283.5717446585563, "total_load_mw": 261.9932169620855, "total_loss_mw": 21.5785277168154, "voltage_violations": [{"bus_id": 1, "vm_pu": 1.06, "va_deg": 0.0, "is_violation": true, "violation_type": "overvoltage"}, {"bus_id": 6, "vm_pu": 1.07, "va_deg": -20.33703968277476, "is_violation": true, "violation_type": "overvoltage"}, {"bus_id": 7, "vm_pu": 1.059162317833605, "va_deg": -18.93149308206091, "is_violation": true, "violation_type": "overvoltage"}, {"bus_id": 8, "vm_pu": 1.09, "va_deg": -18.93149308206091, "is_violation": true, "violation_type": "overvoltage"}, {"bus_id": 9, "vm_pu": 1.055031071635381, "va_deg": -20.53586245735253, "is_violation": true, "violation_type": "overvoltage"}, {"bus_id": 10, "vm_pu": 1.0506179055820453, "va_deg": -20.774910897570482, "is_violation": true, "violation_type": "overvoltage"}, {"bus_id": 11, "vm_pu": 1.0565148470894936, "va_deg": -20.69666138004852, "is_violation": true, "violation_type": "overvoltage"}, {"bus_id": 12, "vm_pu": 1.0553385359303724, "va_deg": -21.14040052481715, "is_violation": true, "violation_type": "overvoltage"}, {"bus_id": 13, "vm_pu": 1.0504947198235643, "va_deg": -21.18880028023881, "is_violation": true, "violation_type": "overvoltage"}], "thermal_violations": [], "summary_text": "", "solver_backend": "pandapower", "llm_prompt": null, "llm_response": null}

--- round 6 ---
[assistant]   (10190 in / 25 out tokens, 1.2 s)
(no text)
tool_call  reconnect_line(from_bus=1, to_bus=5)
[tool reconnect_line]   (gate: pass)
{"case_name": "case14", "converged": true, "bus_voltages": [{"bus_id": 1, "vm_pu": 1.06, "va_deg": 0.0, "is_violation": true, "violation_type": "overvoltage"}, {"bus_id": 2, "vm_pu": 1.0450000000000002, "va_deg": -5.12793878696546, "is_violation": false, "violation_type": null}, {"bus_id": 3, "vm_pu": 1.0099999999999998, "va_deg": -13.265552429829722, "is_violation": false, "violation_type": null}, {"bus_id": 4, "vm_pu": 1.0187624648876388, "va_deg": -10.366702398493839, "is_violation": false, "violation_type": null}, {"bus_id": 5, "vm_pu": 1.02029095700076, "va_deg": -8.82240210678166, "is_violation": false, "violation_type": null}, {"bus_id": 6, "vm_pu": 1.0700000000000003, "va_deg": -14.214840392232752, "is_violation": true, "violation_type": "overvoltage"}, {"bus_id": 7, "vm_pu": 1.062810539356897, "va_deg": -13.311179763906466, "is_violation": true, "violation_type": "overvoltage"}, {"bus_id": 8, "vm_pu": 1.0899999999999999, "va_deg": -13.311179763906466, "is_violation": true, "violation_type": "overvoltage"}, {"bus_id": 9, "vm_pu": 1.0580443094491314, "va_deg": -14.83570671574802, "is_violation": true, "violation_type": "overvoltage"}, {"bus_id": 10, "vm_pu": 1.0530440362521865, "va_deg": -15.001413104003237, "is_violation": true, "violation_type": "overvoltage"}, {"bus_id": 11, "vm_pu": 1.057679555240288, "va_deg": -14.75342422618607, "is_violation": true, "violation_type": "overvoltage"}, {"bus_id": 12, "vm_pu": 1.0556280086126129, "va_deg": -15.045135174555291, "is_violation": true, "violation_type": "overvoltage"}, {"bus_id": 13, "vm_pu": 1.0508695375543848, "va_deg": -15.126702667230425, "is_violation": true, "violation_type": "overvoltage"}, {"bus_id": 14, "vm_pu": 1.0378079777432185, "va_deg": -15.913801850951222, "is_violation": false, "violation_type": null}], "line_flows": [{"line_id": 0, "from_bus": 1, "to_bus": 2, "p_from_mw": 161.27898841095683, "q_from_mvar": -21.42567444766888, "loading_percent": 1.5503711493049632, "is_violation": false}, {"line_id": 1, "from_bus": 1, "to_bus": 5, "p_from_mw": 75.87797902492972, "q_from_mvar": 3.463791579624108, "loading_percent": 0.724107673685497, "is_violation": false}, {"line_id": 2, "from_bus": 2, "to_bus": 3, "p_from_mw": 76.79866575902287, "q_from_mvar": 3.222796090798716, "loading_percent": 0.7431125926079991, "is_violation": false}, {"line_id": 3, "from_bus": 2, "to_bus": 4, "p_from_mw": 55.101263504310396, "q_from_mvar": -1.9438409901584484, "loading_percent": 0.5329422442351411, "is_violation": false}, {"line_id": 4, "from_bus": 2, "to_bus": 5, "p_from_mw": 40.45264324004043, "q_from_mvar": 0.9857116341385478, "loading_percent": 0.3925234735461614, "is_violation": false}, {"line_id": 5, "from_bus": 3, "to_bus": 4, "p_from_mw": -27.87271347990971, "q_from_mvar": 5.863003788468809, "loading_percent": 0.2875165955247451, "is_violation": false}, {"line_id": 6, "from_bus": 4, "to_bus": 5, "p_from_mw": -61.25413780951896, "q_from_mvar": 16.617890024433397, "loading_percent": 0.6292868525501258, "is_violation": false}, {"line_id": 7, "from_bus": 6, "to_bus": 11, "p_from_mw": 6.942363161383913, "q_from_mvar": 3.3378677263170364, "loading_percent": 0.07271878734292794, "is_violation": false}, {"line_id": 8, "from_bus": 6, "to_bus": 12, "p_from_mw": 7.563075574563357, "q_from_mvar": 2.424007014162801, "loading_percent": 0.07497437118036218, "is_violation": false}, {"line_id": 9, "from_bus": 6, "to_bus": 13, "p_from_mw": 17.30811552521927, "q_from_mvar": 7.033603517484796, "loading_percent": 0.17636814479171226, "is_violation": false}, {"line_id": 10, "from_bus": 9, "to_bus": 10, "p_from_mw": 5.406245935645926, "q_from_mvar": 4.231293988082703, "loading_percent": 0.06554142227209774, "is_violation": false}, {"line_id": 11, "from_bus": 9, "to_bus": 14, "p_from_mw": 9.334617665402597, "q_from_mvar": 3.602367417659881, "loading_percent": 0.09552220032553112, "is_violation": false}, {"line_id": 12, "from_bus": 10, "to_bus": 11, "p_from_mw": -3.0386948995232776, "q_from_mvar": -1.2379465523311528, "loading_percent": 0.03147379107690154, "is_violation": false}, {"line_id": 13, "from_bus": 12, "to_bus": 13, "p_from_mw": 1.6062061663450695, "q_from_mvar": 0.7383774263972271, "loading_percent": 0.016915538327116307, "is_violation": false}, {"line_id": 14, "from_bus": 13, "to_bus": 14, "p_from_mw": 5.04052996156602, "q_from_mvar": 1.4979380253544787, "loading_percent": 0.050543992447383876, "is_violation": false}, {"line_id": 100000, "from_bus": 4, "to_bus": 7, "p_from_mw": 27.1949816871751, "q_from_mvar": -9.827006899788223, "loading_percent": 0.2867019290881507, "is_violation": false}, {"line_id": 100001, "from_bus": 4, "to_bus": 9, "p_from_mw": 15.584229579427392, "q_from_mvar": -0.6565082451097171, "loading_percent": 0.15465437970439075, "is_violation": false}, {"line_id": 100002, "from_bus": 5, "to_bus": 6, "p_from_mw": 43.6795453624822, "q_from_mvar": 12.800495674052105, "loading_percent": 0.4506195243614869, "is_violation": false}, {"line_id": 100003, "from_bus": 7, "to_bus": 8, "p_from_mw": 1.864877444452035e-14, "q_from_mvar": -16.404907936939704, "loading_percent": 0.1559131516304279, "is_violation": false}, {"line_id": 100004, "from_bus": 7, "to_bus": 9, "p_from_mw": 27.194981686784615, "q_from_mvar": 4.966495323648764, "loading_percent": 0.2627373868358704, "is_violation": false}], "total_generation_mw": 275.90944912682, "total_load_mw": 261.9932169620855, "total_loss_mw": 13.916232169435089, "voltage_violations": [{"bus_id": 1, "vm_pu": 1.06, "va_deg": 0.0, "is_violation": true, "violation_type": "overvoltage"}, {"bus_id": 6, "vm_pu": 1.0700000000000003, "va_deg": -14.214840392232752, "is_violation": true, "violation_type": "overvoltage"}, {"bus_id": 7, "vm_pu": 1.062810539356897, "va_deg": -13.311179763906466, "is_violation": true, "violation_type": "overvoltage"}, {"bus_id": 8, "vm_pu": 1.0899999999999999, "va_deg": -13.311179763906466, "is_violation": true, "violation_type": "overvoltage"}, {"bus_id": 9, "vm_pu": 1.0580443094491314, "va_deg": -14.83570671574802, "is_violation": true, "violation_type": "overvoltage"}, {"bus_id": 10, "vm_pu": 1.0530440362521865, "va_deg": -15.001413104003237, "is_violation": true, "violation_type": "overvoltage"}, {"bus_id": 11, "vm_pu": 1.057679555240288, "va_deg": -14.75342422618607, "is_violation": true, "violation_type": "overvoltage"}, {"bus_id": 12, "vm_pu": 1.0556280086126129, "va_deg": -15.045135174555291, "is_violation": true, "violation_type": "overvoltage"}, {"bus_id": 13, "vm_pu": 1.0508695375543848, "va_deg": -15.126702667230425, "is_violation": true, "violation_type": "overvoltage"}], "thermal_violations": [], "summary_text": "", "solver_backend": "pandapower", "llm_prompt": null, "llm_response": null}

--- round 7 ---
[assistant]   (12954 in / 290 out tokens, 5.6 s)
The worst N-1 contingency, ranked by maximum violations across all 20 branches, is the outage of line **1–5**; the AC power flow converged.

**Key numbers for the outage state**
- Total load: **261.993 MW**
- Total generation: **283.572 MW**
- Total active-power losses: **21.579 MW**
- Voltage range: **1.0075–1.0900 p.u.**
- Highest branch loading: **2.362%** on line **1–2**

**Violations**
- **9 voltage violations**, all overvoltages; **no increase from the base case**
- **0 thermal violations**
- No new violations caused by this outage

**Suggested next step:** Review voltage-control settings to address the nine pre-existing overvoltages; the disconnected line has been restored to return case14 to its base topology.

[final answer]
The worst N-1 contingency, ranked by maximum violations across all 20 branches, is the outage of line **1–5**; the AC power flow converged.

**Key numbers for the outage state**
- Total load: **261.993 MW**
- Total generation: **283.572 MW**
- Total active-power losses: **21.579 MW**
- Voltage range: **1.0075–1.0900 p.u.**
- Highest branch loading: **2.362%** on line **1–2**

**Violations**
- **9 voltage violations**, all overvoltages; **no increase from the base case**
- **0 thermal violations**
- No new violations caused by this outage

**Suggested next step:** Review voltage-control settings to address the nine pre-existing overvoltages; the disconnected line has been restored to return case14 to its base topology.
